<?xml version="1.0" encoding="utf-8"?>
<!DOCTYPE network SYSTEM "http://www.matsim.org/files/dtd/network_v1.dtd">

<!--
************************************************************************ 
*	Programmer: Nikola Andric										   *
*	Email: dzonikika@yahoo.com  									   *
*	Last Editted: 11/08/2021 	 									   *
*	Description: This file contains the plans of the 10 taxu vehicles  *
*				for the Pigou's example.							   *
************************************************************************
-->

<network name="pigou test network">
	<!-- List of nodes that are necessary for Pigou example -->
   <nodes>
      <node id="1" x="-15000.000001" y="0"/>
      <node id="2" x="-15000" y="0"/>
      <node id="3" x="-4698" y="1711"/>     
      <node id="4" x="-4698" y="-1711"/>     
      <node id="5" x="0" y="0"/>
      <node id="6" x="0.000001" y="0"/>
   </nodes>
   <links capperiod="01:00:00">
	  <!-- link 1 is the starting link and taxis will start the trip from the end of the link.
 				This is set up this way because the program would not run otherwise. However, the length of
				the link 1 and link 20 (length: 0.000001) is so small that they are neglible and they will not affect calculations.
				This enables us to visualize this example such that vehicles start at the node 2
 				and finish their trip at node 5. will go until the end of the link 20. 
			
			Highway road consider the node 2,4,5 whose speed limit is 57.78.
			Regular road consider the node 2,3,5 whose spped limit is 27.78.

		-->
      <link id="1" from="1" to="2" length="1.00" capacity="36000" freespeed="27.78" permlanes="1"  modes="car, taxi"/>      
      <link id="5" from="2" to="3" length="10000.00" capacity="3600" freespeed="27.78" permlanes="1" modes="car, taxi" />    
      <link id="7" from="2" to="4" length="10000.00" capacity="3600" freespeed="57.78" permlanes="1" modes="car, taxi" />    
      <link id="14" from="3" to="5" length="5000.00" capacity="1000" freespeed="27.78" permlanes="1" modes="car, taxi" />      
      <link id="16" from="4" to="5" length="5000.00" capacity="1000" freespeed="57.78" permlanes="1"  modes="car, taxi"/>     
      <link id="20" from="5" to="6" length="1.00" capacity="36000" freespeed="27.78" permlanes="1" modes="car, taxi" />
   </links>
</network>
